* rc step transient golden corpus case
V1 in 0 PULSE(0 1 0 1p 1p 1 2)
R1 in out 1k
C1 out 0 1u
.tran 1m 5m
.end
